 PDEW2021  1  2  8 34 21.40  -5.8400  153.1000  32.8 0.0 5.1 NEW IRELAND REGION, P.N.                
event name:     MX.EV004  
time shift:      2.3400
half duration:   1.0000
latitude:       -0.820378572352153
longitude:      0.0003116372444144318
depth:          22.0000
Mrr:       4.300000e+23
Mtt:      -9.170000e+22
Mpp:      -3.380000e+23
Mrt:       3.970000e+23
Mrp:      -5.530000e+22
Mtp:      -4.400000e+23