 PDEW2021  1  2 20 35 57.70   4.3300  138.0200  13.4 0.0 5.3 W. CAROLINE ISLANDS, MIC                
event name:     MX.EV007  
time shift:      1.7800
half duration:   1.0000
latorUTM:        -0.8196744106112788
longorUTM:      0.820469012748425
depth:          1.8300
Mrr:       7.640000e+23
Mtt:      -1.330000e+23
Mpp:      -6.310000e+23
Mrt:       6.160000e+22
Mrp:      -1.660000e+23
Mtp:      -3.480000e+23