 PDEW2021  1  3  5 25 20.40   1.0100  -28.1800  10.0 0.0 5.2 CENTRAL MID-ATLANTIC RID                
event name:     202101030525A  
time shift:      3.4900
half duration:   0.6000
latorUTM:        0.0
longorUTM:      0.8200800952925866
depth:          3.3400
Mrr:       2.330000e+23
Mtt:      -2.020000e+23
Mpp:      -3.070000e+22
Mrt:       5.390000e+22
Mrp:       1.670000e+22
Mtp:      -8.440000e+22
