 PDEW2021  1  3  3 27 17.40 -52.1500   -4.9900  10.0 0.0 5.1 SOUTHERN MID-ATLANTIC RI                
event name:     MX.EV022  
time shift:      3.4900
half duration:   1.0000
latorUTM:        0.0
longorUTM:      -0.8206881332060245
depth:          22.0000
Mrr:      -4.930000e+23
Mtt:       4.380000e+23
Mpp:       5.510000e+22
Mrt:       2.510000e+23
Mrp:      -1.320000e+23
Mtp:      -7.600001e+23