 PDEW2021  1  3 11 52 59.50  13.2900  -90.8500  47.8 0.0 4.8 NEAR COAST OF GUATEMALA                 
event name:     MX.EV043  
time shift:     -1.1200
half duration:   1.0000
latorUTM:       0.8109138629358446
longorUTM:     -0.840465815889425
depth:          22.00
Mrr:       2.680000e+23
Mtt:      -1.910000e+23
Mpp:      -7.640000e+22
Mrt:       2.050000e+23
Mrp:      -2.350000e+23
Mtp:       7.750000e+22