 PDEW2021  1  5 13 22 12.10 -35.3300 -105.2900  10.0 0.0 4.8 SOUTHERN EAST PACIFIC RI                
event name:     MX.EV049  
time shift:      4.2300
half duration:   0.7000
latorUTM:       0.824
longorUTM:    0.820469012748425
depth:          5.8900
Mrr:      -1.850000e+23
Mtt:       7.380000e+22
Mpp:       1.110000e+23
Mrt:      -3.840000e+22
Mrp:      -3.160000e+22
Mtp:      -2.240000e+23