 PDEW2021  1  4 14 38 51.10  73.1200    6.4900  10.0 0.0 4.8 GREENLAND SEA                           
event name:     202101041438A  
time shift:      2.1900
half duration:   1.0000
latorUTM:       0.840378572352153
longorUTM:      0.02
depth:          1.7600
Mrr:      -1.640000e+23
Mtt:       9.740000e+22
Mpp:       6.640000e+22
Mrt:       5.110000e+21
Mrp:      -9.000000e+22
Mtp:       6.140000e+22